Version 4
SHEET 1 1548 2356
WIRE 432 -592 400 -592
WIRE 560 -592 432 -592
WIRE 560 -560 560 -592
WIRE 400 -544 400 -592
WIRE 272 -496 240 -496
WIRE 336 -496 272 -496
WIRE 560 -448 560 -480
WIRE 400 -400 400 -448
WIRE 240 -352 240 -496
WIRE 400 -352 400 -400
WIRE 240 -224 240 -272
WIRE 400 -224 400 -272
FLAG 400 -224 0
FLAG 560 -448 0
FLAG 240 -224 0
FLAG 432 -592 vin
FLAG 400 -400 collector
FLAG 272 -496 base
SYMBOL pnp 336 -448 M180
WINDOW 0 71 33 Left 2
WINDOW 3 64 68 Left 2
SYMATTR InstName Q1
SYMATTR Value TIP32C
SYMBOL res 384 -368 R0
SYMATTR InstName R1
SYMATTR Value 1
SYMBOL voltage 560 -576 R0
WINDOW 123 0 0 Left 0
WINDOW 39 0 0 Left 0
SYMATTR InstName V1
SYMATTR Value 5
SYMBOL res 224 -368 R0
SYMATTR InstName R2
SYMATTR Value {RBASE}
TEXT 224 24 Left 2 !*.model TIP32C  ako:NSC_5F      PNP()           ; case TO-220\n.MODEL TIP32C       PNP(Is=51.23f Xti=3 Eg=1.11 Vaf=100 Bf=434.1 Ise=51.23f Ne=1.22\n+   Ikf=.3883 Nk=.5544 Xtb=2.2 Br=55.47 Isc=51.23f Nc=1.205\n+   Ikr=10.87 Rc=.3443 Cjc=136.9p Mjc=.3155 Vjc=.75 Fc=.5\n+   Cje=179.9p Mje=.4294 Vje=.75 Tr=20.25n Tf=13.05n Itf=6.85\n+   Xtf=1.573 Vtf=10 Rb=.1)\n*$
TEXT 224 -128 Left 2 !.tran 0 10 1m uic
TEXT 224 -168 Left 2 !.step param RBASE list 470 1k
TEXT 224 -72 Left 2 ;Model Reference:\nhttps://www2.seas.gwu.edu/~ece20/spec_sheets/parts/spice_libs/TIP31A/pwrbjt.lib
TEXT 656 -544 Left 2 ;Difference between SPICE model and Proteus Model\n                       Rbase       Ibase\nProteus           470R        310mA\nSPICE              470R       537mA\n \nThe measurement matches Proteus more accurately
TEXT 656 -608 Left 3 ;TIP32C Current & Power Measurement
